/batch
/config,noeldb,1     ! force off writing results to database
*get,_wallstrt,active,,time,wall
! ANSYS input file written by Workbench version 12.1  Internal
! File used for geometry attach: c:\Temp\WB_WATSRELIAS_980_2\unsaved_project_files\dp0\SYS\DM\SYS.agdb
/title,ParameterExample--Static Structural (A5)
/com,--- Data in consistent MKS units.
/units,MKS
/nopr
/track,-1
/wb,file,start              !  signify a WB generated input file
/prep7
! Turn off shape checking because checks already performed inside WB mesher.
! See help system for more information.
SHPP,OFF,,NOWARN
/nolist
etcon,set             ! allow ANSYS to choose best KEYOP's for 180x elements
/com,*********** Nodes for the whole assembly ***********
nblock,3
(1i8,3e20.9e3)
       1    1.612689548E-003    6.779897687E-003    1.900000000E-001
       2    1.612689548E-003    6.779897687E-003    1.800000000E-001
       3    1.612689548E-003    6.779897687E-003    1.700000000E-001
       4    1.612689548E-003    6.779897687E-003    1.600000000E-001
       5    1.612689548E-003    6.779897687E-003    1.500000000E-001
       6    1.612689548E-003    6.779897687E-003    1.400000000E-001
       7    1.612689548E-003    6.779897687E-003    1.300000000E-001
       8    1.612689548E-003    6.779897687E-003    1.200000000E-001
       9    1.612689548E-003    6.779897687E-003    1.100000000E-001
      10    1.612689548E-003    6.779897687E-003    1.000000000E-001
      11    1.612689548E-003    6.779897687E-003    9.000000000E-002
      12    1.612689548E-003    6.779897687E-003    8.000000000E-002
      13    1.612689548E-003    6.779897687E-003    7.000000000E-002
      14    1.612689548E-003    6.779897687E-003    6.000000000E-002
      15    1.612689548E-003    6.779897687E-003    5.000000000E-002
      16    1.612689548E-003    6.779897687E-003    4.000000000E-002
      17    1.612689548E-003    6.779897687E-003    3.000000000E-002
      18    1.612689548E-003    6.779897687E-003    2.000000000E-002
      19    1.612689548E-003    6.779897687E-003    1.000000000E-002
      20   -5.551927518E-003    3.266782860E-003    1.900000000E-001
! ... 2531 like lines cut
/wb,elem,start            !  set before creation of elements
/com,*********** Elements for Body 1 "Solid" ***********
et,1,186
keyo,1,2,1          ! set full integration on SOLID186
eblock,19,solid
(19i8)
       1       1       1       1       0       0       0       0      20       0       1       1      20     210      58     380     379     376     377
     695     793     947     696    1933    1931    1929    1932     699     794    1563     948
       1       1       1       1       0       0       0       0      20       0       2       1      58     210      20       2      59     211      21
     696     947     793     695     702     952     798     701     694     944    1560     790
       1       1       1       1       0       0       0       0      20       0       3       2      59     211      21       3      60     212      22
     702     952     798     701     707     956     802     706     700     949    1564     795
       1       1       1       1       0       0       0       0      20       0       4       3      60     212      22       4      61     213      23
     707     956     802     706     712     960     806     711     705     953    1567     799
       1       1       1       1       0       0       0       0      20       0       5       4      61     213      23       5      62     214      24
     712     960     806     711     717     964     810     716     710     957    1570     803
       1       1       1       1       0       0       0       0      20       0       6       5      62     214      24       6      63     215      25
     717     964     810     716     722     968     814     721     715     961    1573     807
       1       1       1       1       0       0       0       0      20       0       7       6      63     215      25       7      64     216      26
     722     968     814     721     727     972     818     726     720     965    1576     811
       1       1       1       1       0       0       0       0      20       0       8       7      64     216      26       8      65     217      27
     727     972     818     726     732     976     822     731     725     969    1579     815
       1       1       1       1       0       0       0       0      20       0       9       8      65     217      27       9      66     218      28
     732     976     822     731     737     980     826     736     730     973    1582     819
       1       1       1       1       0       0       0       0      20       0      10       9      66     218      28      10      67     219      29
     737     980     826     736     742     984     830     741     735     977    1585     823
! ... 981 like lines cut
/wb,elem,end               !  done creating elements
/com,*********** Send User Defined Coordinate System(s) ***********
csys,0
/com,*********** Set Reference Temperature ***********
tref,22.
/wb,mat,start              !  starting to send materials
/com,*********** Send Materials ***********
MP,DENS,1,7850,	! kg m^-3
MP,ALPX,1,1.2e-05,	! C^-1
MP,C,1,434,	! J kg^-1 C^-1
MP,KXX,1,60.5,	! W m^-1 C^-1
MP,RSVX,1,1.7e-07,	! kg m^3 A^-2 s^-3
MP,EX,1,200000000000,	! Pa
MP,NUXY,1,0.3,
MP,MURX,1,10000,

/wb,mat,end                !  done sending materials
!************************* Model Summary ********************
!Solid, Structural Steel, matid, 1
!************************* End Model Summary ********************
! get the diagonal of the bounding box. Needed later for other things
*get,_xmin,node,,mnloc,x
*get,_ymin,node,,mnloc,y
*get,_zmin,node,,mnloc,z
*get,_xmax,node,,mxloc,x
*get,_ymax,node,,mxloc,y
*get,_zmax,node,,mxloc,z
_ASMDIAG=(_xmax-_xmin)*(_xmax-_xmin)+(_ymax-_ymin)*(_ymax-_ymin)+(_zmax-_zmin)*(_zmax-_zmin)
_ASMDIAG=SQRT(_ASMDIAG)
/wb,contact,start          !  starting to send contact
/wb,contact,end            !  done creating contacts
/golist
/wb,load,start             !  starting to send loads
/com,*********** Fixed Supports ***********
CMBLOCK,FIXEDSU ,NODE,      90
(8i10)
       381       382       383       384       385       386       387       388
       389       390       391       392       393       394       395       396
       397       398       399       419       420       421       422       423
       424       425       426       427       428       429       430       431
       432      1934      1935      1936      1937      1938      1939      1940
      1941      1942      1943      1944      1945      1946      1947      1948
      1949      1950      1951      1952      1953      1954      1955      1956
      1957      1958      1959      1960      1961      1962      1963      1964
      1965      1966      1967      1968      1969      1970      1971      1972
      1973      1974      1975      1976      2035      2036      2038      2040
      2042      2044      2046      2048      2050      2052      2054      2056
      2058      2060
cmsel,s,FIXEDSU
d,all,all
nsel,all
nsel,all
/com,*********** Define Force Using Surface Effect Elements ***********
local,12,0,0.,0.,0.,-0.,0.,0.
csys,0
et,2,154
eblock,10
(15i8)
     501       2       2       2      12     691     692     370     368    2549    1920    1914    1917
     502       2       2       2      12     690     691     368     371    2548    1917    1915    1921
     503       2       2       2      12     689     690     371     367    2547    1921    1910    1913
     504       2       2       2      12     688     689     367     372    2546    1913    1911    1923
     505       2       2       2      12     687     688     372     366    2545    1923    1906    1909
     506       2       2       2      12     686     687     366     373    2544    1909    1907    1924
     507       2       2       2      12     685     686     373     365    2543    1924    1902    1905
     508       2       2       2      12     684     685     365     374    2542    1905    1903    1926
     509       2       2       2      12     683     684     374     364    2541    1926    1899    1901
     510       2       2       2      12     682     683     364     375    2540    1901    1900    1928
     511       2       2       2      12     680     682     375     363    2538    1928    1896    1898
     512       2       2       2      12     681     680     363     369    2537    1898    1895    1918
     513       2       2       2      12     693     681     369     362    2539    1918    1891    1894
     514       2       2       2      12     692     693     362     370    2550    1894    1892    1920
     515       2       2       2      12     362     377     376     370    1893    1929    1919    1892
     516       2       2       2      12     362     369     363     377    1891    1895    1897    1893
     517       2       2       2      12     378     376     372     367    1930    1922    1911    1912
     518       2       2       2      12     368     370     376     378    1914    1919    1930    1916
     519       2       2       2      12     367     371     368     378    1910    1915    1916    1912
     520       2       2       2      12     372     376     379     366    1922    1931    1908    1906
! ... 6 like lines cut
esel,s,type,,2
keyop,2,2,1                ! Apply load in local coordinate system
keyop,2,7,1                ! Use original area so load is constant in large deformation
keyop,2,11,2               ! Use real and not project area
esel,all

*DIM,_loadvari26x,TABLE,2,1,1,TIME,
! Time values
_loadvari26x(1,0,1) = 0.
_loadvari26x(2,0,1) = 1.
! Load values
_loadvari26x(1,1,1) = 0.
_loadvari26x(2,1,1) = 4111.70423185725


*DIM,_loadvari26y,TABLE,2,1,1,TIME,
! Time values
_loadvari26y(1,0,1) = 0.
_loadvari26y(2,0,1) = 1.
! Load values
_loadvari26y(1,1,1) = 0.
_loadvari26y(2,1,1) = 0.


*DIM,_loadvari26z,TABLE,2,1,1,TIME,
! Time values
_loadvari26z(1,0,1) = 0.
_loadvari26z(2,0,1) = 1.
! Load values
_loadvari26z(1,1,1) = 0.
_loadvari26z(2,1,1) = 0.

/gst,on,on
fini
*get,_numnode,node,0,count
*get,_numelem,elem,0,count
/go
/wb,load,end               !  done creating loads
/com,--- Number of total nodes = %_numnode%
/com,--- Number of contact elements = 25
/com,--- Number of spring elements = 0
/com,--- Number of solid elements = 500
/com,--- Number of total elements = %_numelem%
*get,_wallbsol,active,,time,wall
/com,****************************************************************************
/com,*************************    SOLUTION       ********************************
/com,****************************************************************************
/solu
antype,0                   ! static analysis
solc,on,on                 ! Turn on solution control with ability to use contact time prediction
eqsl,pcg,1e-8,,,,,,1
resc,,none                 ! Do not keep any restart files
cntr,print,1               ! print out contact info and also make no initial contact an error
nldiag,cont,iter           ! print out contact info each equilibrium iteration
/com,****************************************************
/com,******************* SOLVE FOR LS 1 ****************
esel,s,type,,2
nsle
sfe,all,1,pres,1,%_loadvari26x%
sfe,all,2,pres,1,%_loadvari26y%
sfe,all,3,pres,1,%_loadvari26z%
nsel,all
esel,all
/nopr
/gopr
nsub,1,1,1
time,1.
outres,erase
outres,all,none
outres,nsol,all
outres,rsol,all
outres,nload,all
outres,strs,all
outres,epel,all
outres,eppl,all
/nopr
/gopr
! *********** WB SOLVE COMMAND ***********
! check interactive state
*get,ANSINTER_,active,,int
*if,ANSINTER_,ne,0,then
/eof
*endif
solve
/com,****************************************************
/com,*************** FINISHED SOLVE FOR LS 1 *************
*set,_DS_PROGRESS          ! turn off progress updates to avoid virus scanning bug
*get,_wallasol,active,,time,wall
*get,_PCGITER,active,,solu,cgiter
/post1
xmlo,parm
/xml,parm,xml
/gopr
fini
/gopr
*get,_walldone,active,,time,wall
_preptime=(_wallbsol-_wallstrt)*3600
_solvtime=(_wallasol-_wallbsol)*3600
_posttime=(_walldone-_wallasol)*3600
_totaltim=(_walldone-_wallstrt)*3600
/wb,file,end               ! done with WB generated input
