
 ANSYS Multiphysics                                


 *-------------------------------------------------------------*
 |                                                             |
 |   W E L C O M E   T O   T H E   A N S Y S   P R O G R A M   |
 |                                                             |
 *-------------------------------------------------------------*




 ***************************************************************
 *                  ANSYS 12.1 LEGAL NOTICES                   *
 ***************************************************************
 *                                                             *
 * COPYRIGHT AND TRADEMARK INFORMATION                         *
 *                                                             *
 * Copyright 2009 SAS IP, Inc.  All rights reserved.           *
 * Unauthorized use, distribution or duplication is            *
 * prohibited.                                                 *
 *                                                             *
 * See the ANSYS, Inc. online documentation or the ANSYS, Inc. *
 * documentation CD for the complete Legal Notice.             *
 *                                                             *
 ***************************************************************
 *                                                             *
 * DISCLAIMER NOTICE                                           *
 *                                                             *
 * THIS ANSYS SOFTWARE PRODUCT AND PROGRAM DOCUMENTATION       *
 * EMBODY TRADE SECRETS AND CONFIDENTIAL AND PROPRIETARY       *
 * INFORMATION OF ANSYS, INC., ITS SUBSIDIARIES, OR LICENSORS. *
 * The software products and documentation are furnished by    *
 * ANSYS, Inc. or its subsidiaries under a software license    *
 * agreement that contains provisions concerning               *
 * non-disclosure, copying, length and nature of use,          *
 * compliance with exporting laws, warranties, disclaimers,    *
 * limitations of liability, and remedies, and other           *
 * provisions.  The software products and documentation may be *
 * used, disclosed, transferred, or copied only in accordance  *
 * with the terms and conditions of that software license      *
 * agreement.                                                  *
 *                                                             *
 * ANSYS, Inc. and ANSYS Europe, Ltd. are UL registered        *
 * ISO 9001:2000 Companies.                                    *
 *                                                             *
 ***************************************************************
 *                                                             *
 * U.S. GOVERNMENT RIGHTS                                      *
 *                                                             *
 * For U.S. Government users, except as specifically granted   *
 * by the ANSYS, Inc. software license agreement, the use,     *
 * duplication, or disclosure by the United States Government  *
 * is subject to restrictions stated in the ANSYS, Inc.        *
 * software license agreement and FAR 12.212 (for non-DOD      *
 * licenses).                                                  *
 *                                                             *
 ***************************************************************



          *****  ANSYS COMMAND LINE ARGUMENTS  *****
  BATCH MODE REQUESTED (-b)    = NOLIST
  INPUT FILE COPY MODE (-c)    = COPY
    2 PARALLEL CPUS REQUESTED
  MEMORY REQUESTED (MB)        = 96          
  START-UP FILE MODE           = NOREAD
  STOP FILE MODE               = NOREAD
  DATABASE SIZE REQUESTED (MB) = 32          

 00000000          VERSION=WINDOWS x64     RELEASE= 12.1BETA UP20090930
 CURRENT JOBNAME=file  09:59:48  OCT 14, 2009 CP=      0.375


 PARAMETER _DS_PROGRESS =     999.0000000    

 /INPUT FILE= ds.dat  LINE=       0



 DO NOT WRITE ELEMENT RESULTS INTO DATABASE

 *GET  _WALLSTRT  FROM  ACTI  ITEM=TIME WALL  VALUE=  9.99666667    

 TITLE= 
 ParameterExample--Static Structural (A5)                                      

 --- Data in consistent MKS units.

 MKS UNITS SPECIFIED FOR INTERNAL    
  LENGTH        (l)  = METER (M)
  MASS          (M)  = KILOGRAM (KG)
  TIME          (t)  = SECOND (SEC)
  TEMPERATURE   (T)  = CELSIUS (C)
  TOFFSET            = 273.0
  CHARGE        (Q)  = COULOMB
  FORCE         (f)  = NEWTON (N) (KG-M/SEC2)
  HEAT               = JOULE (N-M)

  PRESSURE           = PASCAL (NEWTON/M**2)
  ENERGY        (W)  = JOULE (N-M)
  POWER         (P)  = WATT (N-M/SEC)
  CURRENT       (i)  = AMPERE (COULOMBS/SEC)
  CAPACITANCE   (C)  = FARAD
  INDUCTANCE    (L)  = HENRY
  MAGNETIC FLUX      = WEBER
  RESISTANCE    (R)  = OHM
  ELECTRIC POTENTIAL = VOLT

 INPUT  UNITS ARE ALSO SET TO MKS 

 *****TRACK MONITOR LEVEL= -1
      TRACK PRINT LEVEL  =  0
      TRACK SUMMARY LEVEL=  0
1

 ***** ANSYS - ENGINEERING ANALYSIS SYSTEM  RELEASE 12.1BETA *****
 ANSYS Multiphysics                                
 00000000          VERSION=WINDOWS x64   09:59:48  OCT 14, 2009 CP=      0.375

 ParameterExample--Static Structural (A5)                                      


 ** WARNING: PRE-RELEASE VERSION OF ANSYS 12.1BETA
  ANSYS,INC TESTING IS NOT COMPLETE - CHECK RESULTS CAREFULLY **

          ***** ANSYS ANALYSIS DEFINITION (PREP7) *****
 *********** Nodes for the whole assembly ***********
 *********** Elements for Body 1 "Solid" ***********
 *********** Send User Defined Coordinate System(s) ***********
 *********** Set Reference Temperature ***********
 *********** Send Materials ***********
 *********** Fixed Supports ***********
 *********** Define Force Using Surface Effect Elements ***********


 ***** ROUTINE COMPLETED *****  CP =         0.406


 --- Number of total nodes = 2550
 --- Number of contact elements = 25
 --- Number of spring elements = 0
 --- Number of solid elements = 500
 --- Number of total elements = 525

 *GET  _WALLBSOL  FROM  ACTI  ITEM=TIME WALL  VALUE=  9.99666667    
 ****************************************************************************
 *************************    SOLUTION       ********************************
 ****************************************************************************

 *****  ANSYS SOLUTION ROUTINE  *****


 PERFORM A STATIC ANALYSIS
  THIS WILL BE A NEW ANALYSIS

 NEW SOLUTION CONTROL OPTION IS ACTIVATED,
 THE FOLLOWING COMMANDS ARE RESET TO NEW DEFAULTS: 
 AUTOTS, DELTIM, NSUB, CNVTOL, LNSRCH, PRED, NROPT,
 TINTP, CUTCONTROL, OPNCONTROL, MONITOR, NEQIT, SSTIF, KBC.

 CONTACT TIME PREDICTIONS ARE BASED ON ELEMENT KEYOPT(7) SPECIFIED 

 USE PRECONDITIONED CONJUGATE GRADIENT SOLVER
  CONVERGENCE TOLERANCE = 1.00000E-08
  MAXIMUM ITERATION     = NumNode*DofPerNode*  1.0000    

 DO NOT SAVE ANY RESTART FILES AT ALL 

 CONTACT INFORMATION PRINTOUT LEVEL    1

 NLDIAG: Nonlinear diagnostics CONT option is set to ON. 
         Writing frequency : each ITERATION.
 ****************************************************
 ******************* SOLVE FOR LS 1 ****************

 SELECT       FOR ITEM=TYPE COMPONENT=    
  IN RANGE       2 TO        2 STEP        1

       25  ELEMENTS (OF      525  DEFINED) SELECTED BY  ESEL  COMMAND.

 SELECT      ALL NODES HAVING ANY ELEMENT IN ELEMENT SET.

       90 NODES (OF     2550  DEFINED) SELECTED FROM
       25 SELECTED ELEMENTS BY NSLE COMMAND.

 SPECIFIED SURFACE LOAD PRES FOR ALL SELECTED ELEMENTS  LKEY =  1   KVAL = 1
      SET ACCORDING TO TABLE PARAMETER = _LOADVARI26X                    

 SPECIFIED SURFACE LOAD PRES FOR ALL SELECTED ELEMENTS  LKEY =  2   KVAL = 1
      SET ACCORDING TO TABLE PARAMETER = _LOADVARI26Y                    

 SPECIFIED SURFACE LOAD PRES FOR ALL SELECTED ELEMENTS  LKEY =  3   KVAL = 1
      SET ACCORDING TO TABLE PARAMETER = _LOADVARI26Z                    

 ALL SELECT   FOR ITEM=NODE COMPONENT=    
  IN RANGE       1 TO     2550 STEP        1

     2550  NODES (OF     2550  DEFINED) SELECTED BY NSEL  COMMAND.

 ALL SELECT   FOR ITEM=ELEM COMPONENT=    
  IN RANGE       1 TO      525 STEP        1

      525  ELEMENTS (OF      525  DEFINED) SELECTED BY  ESEL  COMMAND.

 PRINTOUT RESUMED BY /GOP

 USE       1 SUBSTEPS INITIALLY THIS LOAD STEP FOR ALL  DEGREES OF FREEDOM
 FOR AUTOMATIC TIME STEPPING:
   USE      1 SUBSTEPS AS A MAXIMUM
   USE      1 SUBSTEPS AS A MINIMUM

 TIME=  1.0000    

 ERASE THE CURRENT DATABASE OUTPUT CONTROL TABLE.


 WRITE ALL  ITEMS TO THE DATABASE WITH A FREQUENCY OF NONE
   FOR ALL APPLICABLE ENTITIES

 WRITE NSOL ITEMS TO THE DATABASE WITH A FREQUENCY OF ALL 
   FOR ALL APPLICABLE ENTITIES

 WRITE RSOL ITEMS TO THE DATABASE WITH A FREQUENCY OF ALL 
   FOR ALL APPLICABLE ENTITIES

 WRITE NLOA ITEMS TO THE DATABASE WITH A FREQUENCY OF ALL 
   FOR ALL APPLICABLE ENTITIES

 WRITE STRS ITEMS TO THE DATABASE WITH A FREQUENCY OF ALL 
   FOR ALL APPLICABLE ENTITIES

 WRITE EPEL ITEMS TO THE DATABASE WITH A FREQUENCY OF ALL 
   FOR ALL APPLICABLE ENTITIES

 WRITE EPPL ITEMS TO THE DATABASE WITH A FREQUENCY OF ALL 
   FOR ALL APPLICABLE ENTITIES

 PRINTOUT RESUMED BY /GOP

 *GET  ANSINTER_  FROM  ACTI  ITEM=INT        VALUE=  0.00000000    

 *IF  ANSINTER_                         ( =   0.00000     )  NE  
      0                                 ( =   0.00000     )  THEN    

 *ENDIF

 *****  ANSYS SOLVE    COMMAND  *****

 *** WARNING ***                         CP =       0.406   TIME= 09:59:48
 Element shape checking is currently inactive.  Issue SHPP,ON or         
 SHPP,WARN to reactivate, if desired.                                    

 *** NOTE ***                            CP =       0.438   TIME= 09:59:48
 The model data was checked and warning messages were found.             
  Please review output or errors file (                                  
 C:\Users\srelias\Demo\ExcelIntegration\_ProjectScratch\Scr99A\file.err  
 ) for these warning messages.                                           

 *** SELECTION OF ELEMENT TECHNOLOGIES FOR APPLICABLE ELEMENTS ***
      --- GIVE SUGGESTIONS AND RESET THE KEY OPTIONS ---

 ELEMENT TYPE    1 IS SOLID186. KEYOPT(2)=0 IS SUGGESTED AND HAS BEEN RESET.
  KEYOPT(1-12)=    0    0    0    0    0    0    0    0    0    0    0    0


1

 ***** ANSYS - ENGINEERING ANALYSIS SYSTEM  RELEASE 12.1BETA *****
 ANSYS Multiphysics                                
 00000000          VERSION=WINDOWS x64   09:59:48  OCT 14, 2009 CP=      0.438

 ParameterExample--Static Structural (A5)                                      


 ** WARNING: PRE-RELEASE VERSION OF ANSYS 12.1BETA
  ANSYS,INC TESTING IS NOT COMPLETE - CHECK RESULTS CAREFULLY **

                       S O L U T I O N   O P T I O N S

   PROBLEM DIMENSIONALITY. . . . . . . . . . . . .3-D                  
   DEGREES OF FREEDOM. . . . . . UX   UY   UZ  
   ANALYSIS TYPE . . . . . . . . . . . . . . . . .STATIC (STEADY-STATE)
   EQUATION SOLVER OPTION. . . . . . . . . . . . .PCG                
      TOLERANCE. . . . . . . . . . . . . . . . . . 1.00000E-08
   GLOBALLY ASSEMBLED MATRIX . . . . . . . . . . .SYMMETRIC  

 *** WARNING ***                         CP =       0.438   TIME= 09:59:48
 Material number 2 (used by element 501 ) should normally have at least  
 one MP or one TB type command associated with it.  Output of energy by  
 material may not be available.                                          

 *** NOTE ***                            CP =       0.438   TIME= 09:59:48
 The step data was checked and warning messages were found.              
  Please review output or errors file (                                  
 C:\Users\srelias\Demo\ExcelIntegration\_ProjectScratch\Scr99A\file.err  
 ) for these warning messages.                                           

 *** NOTE ***                            CP =       0.438   TIME= 09:59:48
 The conditions for direct assembly have been met.  No .emat or .erot    
 files will be produced.                                                 

                      L O A D   S T E P   O P T I O N S

   LOAD STEP NUMBER. . . . . . . . . . . . . . . .     1
   TIME AT END OF THE LOAD STEP. . . . . . . . . .  1.0000    
   NUMBER OF SUBSTEPS. . . . . . . . . . . . . . .     1
   STEP CHANGE BOUNDARY CONDITIONS . . . . . . . .    NO
   PRINT OUTPUT CONTROLS . . . . . . . . . . . . .NO PRINTOUT
   DATABASE OUTPUT CONTROLS
      ITEM     FREQUENCY   COMPONENT
       ALL       NONE               
      NSOL        ALL               
      RSOL        ALL               
      NLOA        ALL               
      STRS        ALL               
      EPEL        ALL               
      EPPL        ALL               


 SOLUTION MONITORING INFO IS WRITTEN TO FILE= file.mntr                                                                                                                                                                                                                                                           


 *** NOTE ***                            CP =       0.641   TIME= 09:59:48
 The PCG solver has automatically set the level of difficulty for this   
 model to 1.                                                             



            **** CENTER OF MASS, MASS, AND MASS MOMENTS OF INERTIA ****

  CALCULATIONS ASSUME ELEMENT MASS AT ELEMENT CENTROID

  TOTAL MASS =   2.6729    

                           MOM. OF INERTIA         MOM. OF INERTIA
  CENTER OF MASS            ABOUT ORIGIN        ABOUT CENTER OF MASS

  XC =  0.28728E-06      IXX =   0.3596E-01      IXX =   0.9229E-02
  YC =  0.76684E-05      IYY =   0.3596E-01      IYY =   0.9227E-02
  ZC =  0.10000          IZZ =   0.6809E-03      IZZ =   0.6809E-03
                         IXY =  -0.7927E-06      IXY =  -0.7927E-06
                         IYZ =  -0.2050E-05      IYZ =   0.1694E-20
                         IZX =  -0.7679E-07      IZX =  -0.3117E-19


  *** MASS SUMMARY BY ELEMENT TYPE ***

  TYPE      MASS
     1   2.67286    

 Range of element maximum matrix coefficients in global coordinates
 Maximum = 2.400952945E+09 at element 161.                               
 Minimum = 1.530525804E+09 at element 190.                               

   *** ELEMENT MATRIX FORMULATION TIMES
  TYPE  NUMBER   ENAME      TOTAL CP  AVE CP

     1     500  SOLID186      0.219   0.000438
     2      25  SURF154       0.000   0.000000
 Time at end of element matrix formulation CP = 0.796875.                
 Iteration=     5 Ratio= 0.248909     Limit= 1.000000E-08 Wall=     0.0
 Iteration=    30 Ratio= 8.183284E-04 Limit= 1.000000E-08 Wall=     0.1
 Iteration=    60 Ratio= 1.446297E-06 Limit= 1.000000E-08 Wall=     0.1

 PRECONDITIONED SOLVER CP TIME      =     0.219
 PRECONDITIONED SOLVER ELAPSED TIME =     0.222

   *** ELEMENT RESULT CALCULATION TIMES
  TYPE  NUMBER   ENAME      TOTAL CP  AVE CP

     1     500  SOLID186      0.094   0.000188
     2      25  SURF154       0.000   0.000000

   *** NODAL LOAD CALCULATION TIMES
  TYPE  NUMBER   ENAME      TOTAL CP  AVE CP

     1     500  SOLID186      0.000   0.000000
     2      25  SURF154       0.000   0.000000
 *** LOAD STEP     1   SUBSTEP     1  COMPLETED.    CUM ITER =      1
 *** TIME =   1.00000         TIME INC =   1.00000      NEW TRIANG MATRIX


 *** ANSYS BINARY FILE STATISTICS
  BUFFER SIZE USED= 16384
        0.375 MB WRITTEN ON ELEMENT SAVED DATA FILE: file.esav
        1.500 MB WRITTEN ON RESULTS FILE: file.rst
 ****************************************************
 *************** FINISHED SOLVE FOR LS 1 *************

 PARAMETER _DS_PROGRESS  DELETED.

 *GET  _WALLASOL  FROM  ACTI  ITEM=TIME WALL  VALUE=  9.99666667    

 *GET  _PCGITER  FROM  ACTI  ITEM=SOLU CGIT  VALUE=  83.0000000    

 FINISH SOLUTION PROCESSING


 ***** ROUTINE COMPLETED *****  CP =         1.125


1

 ***** ANSYS - ENGINEERING ANALYSIS SYSTEM  RELEASE 12.1BETA *****
 ANSYS Multiphysics                                
 00000000          VERSION=WINDOWS x64   09:59:49  OCT 14, 2009 CP=      1.141

 ParameterExample--Static Structural (A5)                                      


 ** WARNING: PRE-RELEASE VERSION OF ANSYS 12.1BETA
  ANSYS,INC TESTING IS NOT COMPLETE - CHECK RESULTS CAREFULLY **

          ***** ANSYS RESULTS INTERPRETATION (POST1) *****

 *** NOTE ***                            CP =       1.141   TIME= 09:59:49
 Reading results into the database (SET command) will update the current 
 displacement and force boundary conditions in the database with the     
 values from the results file for that load set.  Note that any          
 subsequent solutions will use these values unless action is taken to    
 either SAVE the current values or not overwrite them (/EXIT,NOSAVE).    

 Set Output of XML File to:
     PARM,     ,     ,     ,     ,     ,     ,     ,     ,     ,     ,     ,
         ,     ,     ,     ,     ,     ,     ,

 DATABASE WRITTEN ON FILE  parm.xml                                                                                                                                                                                                                                                            

 PRINTOUT RESUMED BY /GOP

 EXIT THE ANSYS POST1 DATABASE PROCESSOR


 ***** ROUTINE COMPLETED *****  CP =         1.141



 PRINTOUT RESUMED BY /GOP

 *GET  _WALLDONE  FROM  ACTI  ITEM=TIME WALL  VALUE=  9.99694444    

 PARAMETER _PREPTIME =     0.000000000    

 PARAMETER _SOLVTIME =     0.000000000    

 PARAMETER _POSTTIME =     1.000000000    

 PARAMETER _TOTALTIM =     1.000000000    

 EXIT ANSYS WITHOUT SAVING DATABASE


 NUMBER OF WARNING MESSAGES ENCOUNTERED=          2
 NUMBER OF ERROR   MESSAGES ENCOUNTERED=          0

+--------------------- A N S Y S   S T A T I S T I C S ------------------------+

Release: 12.1BETA   UP20090930   Version: WINDOWS x64 
Date Run: 10/14/2009   Time: 09:59
Windows Process ID:         4980

Number of cores:   2 (Shared Memory Parallel)

Job Name: file
Working Directory: C:\Users\srelias\Demo\ExcelIntegration\_ProjectScratch\Scr99A

Elapsed time spent pre-processing model (/PREP7)  :      0.0 seconds
Elapsed time spent solution - preprocessing       :      0.0 seconds
Elapsed time spent computing solution             :      0.4 seconds
Elapsed time spent solution - postprocessing      :      0.0 seconds
Elapsed time spent post-processing model (/POST1) :      0.0 seconds

Equation solver computational rate                :   2989.4 Mflops

+------------------ E N D   A N S Y S   S T A T I S T I C S -------------------+


 *---------------------------------------------------------------------------*
 |                                                                           |
 |                            ANSYS RUN COMPLETED                            |
 |                                                                           |
 |---------------------------------------------------------------------------|
 |                                                                           |
 |            Release 12.1BETA       UP20090930         WINDOWS x64          |
 |                                                                           |
 |---------------------------------------------------------------------------|
 |                                                                           |
 |   Maximum Scratch Memory Used       =     7179640 Words       27.388 MB   |
 |                                                                           |
 |---------------------------------------------------------------------------|
 |                                                                           |
 |        CP Time      (sec) =          1.156       Time  =  09:59:49        |
 |        Elapsed Time (sec) =          3.000       Date  =  10/14/2009      |
 |                                                                           |
 *---------------------------------------------------------------------------*
